# created with PyMOL 2.5.5
@<TRIPOS>MOLECULE
taxa-4-5
52 54 1                 
SMALL
USER_CHARGES
@<TRIPOS>ATOM
1	 C01	46.246	44.461	47.452	c3	784	TAX	0.000	
2	 C02	44.868	44.984	47.170	c3	784	TAX	0.000	
3	 C03	43.732	44.320	48.064	c3	784	TAX	0.000	
4	 C04	42.583	45.381	48.039	c2	784	TAX	0.000	
5	 C05	41.573	45.376	49.165	c2	784	TAX	0.000	
6	 C06	42.218	45.365	50.539	c3	784	TAX	0.000	
7	 C07	43.656	44.862	50.559	c3	784	TAX	0.000	
8	 C08	43.984	43.693	49.570	c3	784	TAX	0.000	
9	 C09	45.353	43.065	50.186	c3	784	TAX	0.000	
10	 C10	46.366	41.998	49.562	c3	784	TAX	0.000	
11	 C11	47.240	42.649	48.477	c2	784	TAX	0.000	
12	 C12	48.733	42.922	48.250	c2	784	TAX	0.000	
13	 C13	48.849	44.469	47.799	c3	784	TAX	0.000	
14	 C14	47.578	45.182	47.121	c3	784	TAX	0.000	
15	 C15	46.458	42.950	47.177	c3	784	TAX	0.000	
16	 C16	47.236	42.695	45.834	c3	784	TAX	0.000	
17	 C17	45.256	42.012	46.935	c3	784	TAX	0.000	
18	 C18	49.597	42.643	49.481	c3	784	TAX	0.000	
19	 C19	42.938	42.552	49.789	c3	784	TAX	0.000	
20	 C20	41.891	45.515	46.685	c3	784	TAX	0.000	
21	 H06	40.495	45.380	49.006	ha	784	TAX	0.000	
22	 H01	46.196	44.711	48.517	hc	784	TAX	0.000	
23	 H02	44.634	44.847	46.108	hc	784	TAX	0.000	
24	 H03	44.871	46.069	47.347	hc	784	TAX	0.000	
25	 H04	43.329	43.489	47.473	hc	784	TAX	0.000	
26	 H07	41.602	44.758	51.214	hc	784	TAX	0.000	
27	 H08	42.202	46.377	50.961	hc	784	TAX	0.000	
28	 H09	43.886	44.572	51.593	hc	784	TAX	0.000	
29	 H10	45.046	42.584	51.131	hc	784	TAX	0.000	
30	 H11	45.958	43.911	50.544	hc	784	TAX	0.000	
31	 H12	45.849	41.094	49.233	hc	784	TAX	0.000	
32	 H13	47.022	41.664	50.378	hc	784	TAX	0.000	
33	 H14	44.328	45.701	50.332	hc	784	TAX	0.000	
34	 H15	49.719	44.588	47.143	hc	784	TAX	0.000	
35	 H16	49.076	45.057	48.700	hc	784	TAX	0.000	
36	 H17	47.723	45.259	46.038	hc	784	TAX	0.000	
37	 H18	47.537	46.220	47.480	hc	784	TAX	0.000	
38	 H19	48.316	42.646	46.027	hc	784	TAX	0.000	
39	 H20	46.988	41.784	45.289	hc	784	TAX	0.000	
40	 H21	47.064	43.514	45.124	hc	784	TAX	0.000	
41	 H22	45.347	41.082	47.508	hc	784	TAX	0.000	
42	 H23	44.320	42.490	47.257	hc	784	TAX	0.000	
43	 H24	45.077	41.743	45.903	hc	784	TAX	0.000	
44	 H25	50.017	41.632	49.459	hc	784	TAX	0.000	
45	 H26	50.426	43.356	49.539	hc	784	TAX	0.000	
46	 H27	49.001	42.742	50.396	hc	784	TAX	0.000	
47	 H28	43.201	41.926	50.650	hc	784	TAX	0.000	
48	 H29	41.942	42.961	49.991	hc	784	TAX	0.000	
49	 H30	42.847	41.876	48.938	hc	784	TAX	0.000	
50	 H31	41.089	46.258	46.722	hc	784	TAX	0.000	
51	 H32	42.607	45.819	45.914	hc	784	TAX	0.000	
52	 H33	41.471	44.562	46.348	hc	784	TAX	0.000	
@<TRIPOS>BOND
1 1 2 1
2 1 14 1
3 1 15 1
4 1 22 1
5 2 3 1
6 2 23 1
7 2 24 1
8 3 4 1
9 3 8 1
10 3 25 1
11 4 5 2
12 4 20 1
13 5 6 1
14 5 21 1
15 6 7 1
16 6 26 1
17 6 27 1
18 7 8 1
19 7 28 1
20 7 33 1
21 8 9 1
22 8 19 1
23 9 10 1
24 9 29 1
25 9 30 1
26 10 11 1
27 10 31 1
28 10 32 1
29 11 12 2
30 11 15 1
31 12 13 1
32 12 18 1
33 13 14 1
34 13 34 1
35 13 35 1
36 14 36 1
37 14 37 1
38 15 16 1
39 15 17 1
40 16 38 1
41 16 39 1
42 16 40 1
43 17 41 1
44 17 42 1
45 17 43 1
46 18 44 1
47 18 45 1
48 18 46 1
49 19 47 1
50 19 48 1
51 19 49 1
52 20 50 1
53 20 51 1
54 20 52 1
@<TRIPOS>SUBSTRUCTURE
1	TAX	1	GROUP	1 ****	TAX
