# created with PyMOL 2.5.5
@<TRIPOS>MOLECULE
PPO_H
10 9 1                  
SMALL
USER_CHARGES
@<TRIPOS>ATOM
1	 P01	45.814	50.379	50.879	p5	783	PPO	0.000	
2	 P02	43.512	52.029	51.122	p5	783	PPO	0.000	
3	 O01	46.106	48.923	50.296	o	783	PPO	-1.000	
4	 O02	44.261	50.714	50.691	os	783	PPO	0.000	
5	 O03	41.851	51.840	50.629	oh	783	PPO	0.000	
6	 O04	46.174	50.412	52.436	o	783	PPO	-1.000	
7	 O05	46.682	51.468	50.093	o	783	PPO	0.000	
8	 O06	43.561	52.247	52.694	o	783	PPO	-1.000	
9	 O07	44.082	53.301	50.346	o	783	PPO	0.000	
10	 H31	41.471	51.075	51.068	ho	783	PPO	0.000	
@<TRIPOS>BOND
1 1 3 1
2 1 4 1
3 1 6 1
4 1 7 2
5 2 4 1
6 2 5 1
7 2 8 1
8 2 9 2
9 5 10 1
@<TRIPOS>SUBSTRUCTURE
1	PPO	1	GROUP	1 ****	PPO
