# created with PyMOL 2.5.5
@<TRIPOS>MOLECULE
taxa-4-20
52 54 1                 
SMALL
USER_CHARGES
@<TRIPOS>ATOM
1	 C01	46.257	44.446	47.416	c3	784	TAX	0.000	
2	 C02	44.883	44.973	47.131	c3	784	TAX	0.000	
3	 C03	43.745	44.322	48.034	c3	784	TAX	0.000	
4	 C04	42.601	45.388	48.002	c2	784	TAX	0.000	
5	 C05	41.593	45.396	49.130	c3	784	TAX	0.000	
6	 C06	42.239	45.392	50.504	c3	784	TAX	0.000	
7	 C07	43.675	44.882	50.524	c3	784	TAX	0.000	
8	 C08	43.995	43.705	49.544	c3	784	TAX	0.000	
9	 C09	45.363	43.074	50.162	c3	784	TAX	0.000	
10	 C10	46.369	41.998	49.545	c3	784	TAX	0.000	
11	 C11	47.245	42.637	48.454	c2	784	TAX	0.000	
12	 C12	48.739	42.901	48.223	c2	784	TAX	0.000	
13	 C13	48.863	44.444	47.760	c3	784	TAX	0.000	
14	 C14	47.593	45.158	47.078	c3	784	TAX	0.000	
15	 C15	46.463	42.932	47.153	c3	784	TAX	0.000	
16	 C16	47.239	42.663	45.811	c3	784	TAX	0.000	
17	 C17	45.255	41.998	46.919	c3	784	TAX	0.000	
18	 C18	49.604	42.627	49.455	c3	784	TAX	0.000	
19	 C19	42.945	42.570	49.774	c3	784	TAX	0.000	
20	 C20	41.907	45.514	46.648	c2	784	TAX	0.000	
21	 H32	42.418	45.190	45.741	ha	784	TAX	0.000	
22	 H33	40.901	45.928	46.588	ha	784	TAX	0.000	
23	 H01	46.211	44.705	48.480	hc	784	TAX	0.000	
24	 H02	44.647	44.829	46.072	hc	784	TAX	0.000	
25	 H03	44.891	46.060	47.301	hc	784	TAX	0.000	
26	 H04	43.337	43.488	47.450	hc	784	TAX	0.000	
27	 H05	40.964	46.293	49.058	hc	784	TAX	0.000	
28	 H06	40.905	44.549	49.032	hc	784	TAX	0.000	
29	 H07	41.621	44.793	51.182	hc	784	TAX	0.000	
30	 H08	42.228	46.408	50.916	hc	784	TAX	0.000	
31	 H09	43.905	44.600	51.561	hc	784	TAX	0.000	
32	 H10	45.056	42.602	51.111	hc	784	TAX	0.000	
33	 H11	45.972	43.921	50.513	hc	784	TAX	0.000	
34	 H12	45.848	41.094	49.223	hc	784	TAX	0.000	
35	 H13	47.025	41.667	50.364	hc	784	TAX	0.000	
36	 H14	44.350	45.717	50.290	hc	784	TAX	0.000	
37	 H15	49.732	44.553	47.101	hc	784	TAX	0.000	
38	 H16	49.093	45.037	48.656	hc	784	TAX	0.000	
39	 H17	47.737	45.227	45.995	hc	784	TAX	0.000	
40	 H18	47.558	46.200	47.429	hc	784	TAX	0.000	
41	 H19	46.784	43.236	44.992	hc	784	TAX	0.000	
42	 H20	48.300	42.915	45.799	hc	784	TAX	0.000	
43	 H21	47.190	41.600	45.539	hc	784	TAX	0.000	
44	 H22	45.485	41.220	46.181	hc	784	TAX	0.000	
45	 H23	44.982	41.479	47.848	hc	784	TAX	0.000	
46	 H24	44.345	42.486	46.606	hc	784	TAX	0.000	
47	 H25	50.002	43.553	49.882	hc	784	TAX	0.000	
48	 H26	49.018	42.118	50.228	hc	784	TAX	0.000	
49	 H27	50.450	41.983	49.192	hc	784	TAX	0.000	
50	 H28	42.373	42.362	48.863	hc	784	TAX	0.000	
51	 H29	43.434	41.631	50.058	hc	784	TAX	0.000	
52	 H30	42.213	42.805	50.548	hc	784	TAX	0.000	
@<TRIPOS>BOND
1 1 2 1
2 1 14 1
3 1 15 1
4 1 23 1
5 2 3 1
6 2 24 1
7 2 25 1
8 3 4 1
9 3 8 1
10 3 26 1
11 4 5 1
12 4 20 2
13 5 6 1
14 5 27 1
15 5 28 1
16 6 7 1
17 6 29 1
18 6 30 1
19 7 8 1
20 7 31 1
21 7 36 1
22 8 9 1
23 8 19 1
24 9 10 1
25 9 32 1
26 9 33 1
27 10 11 1
28 10 34 1
29 10 35 1
30 11 12 2
31 11 15 1
32 12 13 1
33 12 18 1
34 13 14 1
35 13 37 1
36 13 38 1
37 14 39 1
38 14 40 1
39 15 16 1
40 15 17 1
41 16 41 1
42 16 42 1
43 16 43 1
44 17 44 1
45 17 45 1
46 17 46 1
47 18 47 1
48 18 48 1
49 18 49 1
50 19 50 1
51 19 51 1
52 19 52 1
53 20 21 1
54 20 22 1
@<TRIPOS>SUBSTRUCTURE
1	TAX	1	GROUP	1 ****	TAX
